Version 4
SHEET 1 880 680
WIRE 160 -32 80 -32
WIRE 272 -32 240 -32
WIRE -80 48 -112 48
WIRE 80 48 80 -32
WIRE 80 48 64 48
WIRE 112 48 80 48
WIRE 272 64 272 -32
WIRE 272 64 176 64
WIRE 320 64 272 64
WIRE 112 80 64 80
WIRE 64 128 64 80
FLAG 144 400 0
FLAG 224 400 0
FLAG 144 320 15
FLAG 224 320 -15
FLAG 144 96 -15
FLAG 144 32 15
FLAG -112 48 Vin
FLAG 320 64 Vout
IOPIN 320 64 Out
FLAG -16 320 Vin
FLAG -16 400 0
FLAG 64 128 0
SYMBOL OpAmps\\UniversalOpAmp2 144 64 R0
SYMATTR InstName U1
SYMBOL voltage 144 304 R0
SYMATTR InstName V1
SYMATTR Value 15
SYMBOL voltage 224 304 R0
SYMATTR InstName V2
SYMATTR Value -15
SYMBOL voltage -16 304 R0
WINDOW 123 24 124 Left 2
WINDOW 39 0 0 Left 0
SYMATTR InstName V3
SYMATTR Value SINE(0 5 3)
SYMBOL cap -16 32 R90
WINDOW 0 0 32 VBottom 2
WINDOW 3 32 32 VTop 2
SYMATTR InstName C1
SYMATTR Value 1µ
SYMBOL res 80 32 R90
WINDOW 0 0 56 VBottom 2
WINDOW 3 32 56 VTop 2
SYMATTR InstName R3
SYMATTR Value 10k
SYMBOL res 256 -48 R90
WINDOW 0 0 56 VBottom 2
WINDOW 3 32 56 VTop 2
SYMATTR InstName R4
SYMATTR Value 10k
TEXT 32 456 Left 2 !.tran 10
