Version 4
SHEET 1 880 680
WIRE 448 96 288 96
WIRE 656 112 512 112
WIRE 736 112 656 112
WIRE 448 128 400 128
WIRE 288 144 288 96
WIRE 400 208 400 128
WIRE 528 208 400 208
WIRE 656 208 656 112
WIRE 656 208 608 208
WIRE 400 224 400 208
WIRE 288 256 288 224
WIRE 400 352 400 304
FLAG 96 224 0
FLAG 16 224 0
FLAG 96 144 Vcc
FLAG 16 144 Vee
FLAG 288 256 0
FLAG 400 352 0
FLAG 480 80 Vcc
FLAG 480 144 Vee
FLAG 736 112 Vo
FLAG 288 96 Vi
SYMBOL voltage 96 128 R0
WINDOW 123 0 0 Left 0
WINDOW 39 0 0 Left 0
SYMATTR InstName V1
SYMATTR Value 15
SYMBOL voltage 16 128 R0
SYMATTR InstName V2
SYMATTR Value -15
SYMBOL voltage 288 128 R0
WINDOW 123 0 0 Left 0
WINDOW 39 0 0 Left 0
SYMATTR InstName V3
SYMATTR Value SINE(0 2 100)
SYMBOL OpAmps\\opamp2 480 48 R0
SYMATTR InstName U1
SYMATTR Value MC1458
SYMBOL res 624 192 R90
WINDOW 0 0 56 VBottom 2
WINDOW 3 32 56 VTop 2
SYMATTR InstName R1
SYMATTR Value 100k
SYMBOL res 384 208 R0
SYMATTR InstName R2
SYMATTR Value 10k
TEXT 256 408 Left 2 !.include MC1458.301.sub
TEXT -16 432 Left 2 !.tran 0.1
